Circuit: * C:\Users\Ritika\OneDrive\Documents\4th sem\ESD\Energy to Pressure App Layout\Simulation.asc

.OP point found by inspection.

Date: Sun Jun 07 14:21:40 2020
Total elapsed time: 0.202 seconds.

tnom = 27
temp = 27
method = trap
totiter = 27
traniter = 0
tranpoints = 0
accept = 0
rejected = 0
matrix size = 12
fillins = 2
solver = Normal
Matrix Compiler1: 678 bytes object code size
Matrix Compiler2: 934 bytes object code size
